Circuit: * C:\Users\Christos\OneDrive - Haute Ecole Léonard de Vinci\School\MA1 Archives\Advanced PCB Design\Advanced-PCB-Project\Simulations\LT3470\LT3470.asc

Direct Newton iteration for .op point succeeded.
Ignoring empty pin current: Ix(u1:2)
Ignoring empty pin current: Ix(u1:2)

Date: Mon Nov 04 10:29:21 2019
Total elapsed time: 1.296 seconds.

tnom = 27
temp = 27
method = modified trap
totiter = 306389
traniter = 306385
tranpoints = 76499
accept = 56743
rejected = 19756
matrix size = 22
fillins = 0
solver = Normal
Matrix Compiler1: 916 bytes object code size  0.4/0.2/[0.1]
Matrix Compiler2: 1.40 KB object code size  0.2/0.3/[0.2]

