Circuit: * C:\Users\julien\Documents\4EO\PCB\Simu boost.asc

Direct Newton iteration failed to find .op point.  (Use ".option noopiter" to skip.)
Starting Gmin stepping
Gmin = 10
Gmin = 1.07374
Gmin = 0.115292
Gmin = 0.0123794
Gmin = 0.00132923
Gmin = 0.000142725
Gmin = 1.5325e-005
Gmin = 1.6455e-006
Gmin = 1.76685e-007
Gmin = 1.89714e-008
Gmin = 2.03704e-009
Gmin = 2.18725e-010
Gmin = 2.34854e-011
Gmin = 2.52173e-012
Gmin = 2.70769e-013
Gmin = 0
Gmin stepping succeeded in finding the operating point.


Date: Wed Nov 06 10:04:50 2019
Total elapsed time: 16.158 seconds.

tnom = 27
temp = 27
method = modified trap
totiter = 2622706
traniter = 2622296
tranpoints = 909159
accept = 706561
rejected = 202598
matrix size = 19
fillins = 2
solver = Normal
Matrix Compiler1: 670 bytes object code size  0.4/0.2/[0.2]
Matrix Compiler2: off  [0.2]/0.3/0.2

