Circuit: * D:\Bureau\ECAM\MA1\Advanced PCB design\pcbProject\Simulations\LT3652\batCharger.asc

Limiting rise time of source v2 to 0.0006
Limiting fall time of source v2 to 0.0006
Direct Newton iteration failed to find .op point.  (Use ".option noopiter" to skip.)
Starting Gmin stepping
Gmin = 10
Gmin = 1.07374
Gmin = 0.115292
Gmin = 0.0123794
Gmin = 0.00132923
Gmin = 0.000142725
Gmin = 1.5325e-005
Gmin = 1.6455e-006
Gmin = 1.76685e-007
Gmin = 1.89714e-008
Gmin = 2.03704e-009
Gmin = 2.18725e-010
Gmin = 2.34854e-011
Gmin = 2.52173e-012
Gmin = 2.70769e-013
Gmin = 0
Gmin stepping succeeded in finding the operating point.

Heightened Def Con from 0.00138317 to 0.00138317
Heightened Def Con from 0.00325889 to 0.00325889
Heightened Def Con from 0.00474469 to 0.00474469

Date: Wed Nov 13 22:15:10 2019
Total elapsed time: 39.231 seconds.

tnom = 27
temp = 27
method = modified trap
totiter = 3011444
traniter = 3010871
tranpoints = 839204
accept = 622342
rejected = 216865
matrix size = 88
fillins = 26
solver = Normal
Thread vector: 8.1/6.2[4] 3.3/2.3[4] 1.3/1.7[1] 0.2/1.0[1]  2592/500
Matrix Compiler1: 4.19 KB object code size  0.8/0.4/[0.3]
Matrix Compiler2: 5.84 KB object code size  0.5/0.9/[0.4]

