Circuit: * C:\Users\Christos\OneDrive - Haute Ecole Léonard de Vinci\School\MA1 Archives\Advanced PCB Design\Advanced-PCB-Project\Simulations\LTC3260\LTC3260_TA03.asc

Direct Newton iteration for .op point succeeded.
