Circuit: * C:\Users\chris\OneDrive - Haute Ecole Léonard de Vinci\School\MA1 Archives\Advanced PCB Design\Advanced-PCB-Project\Simulations\LTC3260\LTC3260_TA03.asc

Direct Newton iteration for .op point succeeded.

Date: Sat Nov 02 14:33:41 2019
Total elapsed time: 27.975 seconds.

tnom = 27
temp = 27
method = modified trap
totiter = 3792571
traniter = 3792550
tranpoints = 987963
accept = 703489
rejected = 284474
matrix size = 40
fillins = 3
solver = Normal
Thread vector: 5.5/4.4[2] 2.7/2.3[2] 0.7/1.5[1] 0.2/0.8[1]  2592/500
Matrix Compiler1: 1.44 KB object code size  0.5/0.3/[0.2]
Matrix Compiler2: 2.64 KB object code size  0.3/0.5/[0.2]

